machine_1/Distribution/13Bus/IEEE13Nodeckt_Power_elem_kVA.txt

CIRCUIT ELEMENT POWER FLOW

(Power Flow into element from indicated Bus)

Power Delivery Elements

  Bus     Phase     kW     +j   kvar         kVA         PF

ELEMENT = "Vsource.SOURCE"
SOURCEBUS     1     -1027.2 +j   -622.0     1200.9       0.8554
SOURCEBUS     2     -1104.2 +j   -477.3     1202.9       0.9179
SOURCEBUS     3     -1191.0 +j   -616.3     1341.0       0.8881
   TERMINAL TOTAL . -3322.4 +j  -1715.6     3739.2       0.8885
SOURCEBUS     0         0.0 +j      0.0        0.0       1.0000
SOURCEBUS     0         0.0 +j      0.0        0.0       1.0000
SOURCEBUS     0         0.0 +j      0.0        0.0       1.0000
   TERMINAL TOTAL .     0.0 +j      0.0        0.0       1.0000

ELEMENT = "Transformer.SUB"
SOURCEBUS     1      1027.2 +j    622.0     1200.9       0.8554
SOURCEBUS     2      1104.2 +j    477.3     1202.9       0.9179
SOURCEBUS     3      1191.0 +j    616.3     1341.0       0.8881
SOURCEBUS     0         0.0 +j      0.0        0.0       1.0000
   TERMINAL TOTAL .  3322.4 +j   1715.6     3739.2       0.8885
650           1     -1261.5 +j   -700.3     1442.8       0.8743
650           2      -978.0 +j   -379.9     1049.2       0.9321
650           3     -1082.9 +j   -635.2     1255.5       0.8626
650           0         0.0 +j      0.0        0.0       1.0000
   TERMINAL TOTAL . -3322.4 +j  -1715.4     3739.1       0.8886

ELEMENT = "Transformer.REG1"
650           1      1261.5 +j    700.3     1442.8       0.8743
650           0         0.0 +j      0.0        0.0       1.0000
   TERMINAL TOTAL .  1261.5 +j    700.3     1442.8       0.8743
RG60          1     -1261.4 +j   -688.9     1437.2       0.8776
RG60          0         0.0 +j      0.0        0.0       1.0000
   TERMINAL TOTAL . -1261.4 +j   -688.9     1437.2       0.8776

ELEMENT = "Transformer.REG2"
650           2       978.0 +j    379.9     1049.2       0.9321
650           0         0.0 +j      0.0        0.0       1.0000
   TERMINAL TOTAL .   978.0 +j    379.9     1049.2       0.9321
RG60          2      -977.9 +j   -373.9     1047.0       0.9340
RG60          0         0.0 +j      0.0        0.0       1.0000
   TERMINAL TOTAL .  -977.9 +j   -373.9     1047.0       0.9340

ELEMENT = "Transformer.REG3"
650           3      1082.9 +j    635.2     1255.5       0.8626
650           0         0.0 +j      0.0        0.0       1.0000
   TERMINAL TOTAL .  1082.9 +j    635.2     1255.5       0.8626
RG60          3     -1082.8 +j   -626.6     1251.1       0.8655
RG60          0         0.0 +j      0.0        0.0       1.0000
   TERMINAL TOTAL . -1082.8 +j   -626.6     1251.1       0.8655

ELEMENT = "Transformer.XFM1"
633           1       162.6 +j    114.7      199.0       0.8171
633           2       121.4 +j     92.6      152.7       0.7952
633           3       121.5 +j     92.8      152.9       0.7949
633           0         0.0 +j      0.0        0.0       1.0000
   TERMINAL TOTAL .   405.5 +j    300.1      504.5       0.8039
634           1      -160.0 +j   -110.0      194.2       0.8240
634           2      -120.0 +j    -90.0      150.0       0.8000
634           3      -120.0 +j    -90.0      150.0       0.8000
634           0         0.0 +j      0.0        0.0       1.0000
   TERMINAL TOTAL .  -400.0 +j   -290.0      494.1       0.8096

ELEMENT = "Capacitor.CAP1"
675           1         0.0 +j   -185.8      185.8      -0.0000
675           2         0.0 +j   -225.4      225.4       1.0000
675           3         0.0 +j   -189.8      189.8       1.0000
   TERMINAL TOTAL .     0.0 +j   -601.0      601.0      -0.0000
675           0         0.0 +j      0.0        0.0       1.0000
675           0         0.0 +j      0.0        0.0       1.0000
675           0         0.0 +j      0.0        0.0       1.0000
   TERMINAL TOTAL .     0.0 +j      0.0        0.0       1.0000

ELEMENT = "Capacitor.CAP2"
611           3         0.0 +j    -95.2       95.2       1.0000
   TERMINAL TOTAL .     0.0 +j    -95.2       95.2       1.0000
611           0         0.0 +j      0.0        0.0       1.0000
   TERMINAL TOTAL .     0.0 +j      0.0        0.0       1.0000

ELEMENT = "Line.650632"
RG60          1      1261.4 +j    688.9     1437.2       0.8776
RG60          2       977.9 +j    373.9     1047.0       0.9340
RG60          3      1082.8 +j    626.6     1251.1       0.8655
   TERMINAL TOTAL .  3322.1 +j   1689.5     3727.0       0.8914
632           1     -1230.7 +j   -602.4     1370.2       0.8982
632           2      -986.7 +j   -337.5     1042.8       0.9462
632           3     -1050.7 +j   -576.6     1198.5       0.8767
   TERMINAL TOTAL . -3268.1 +j  -1516.4     3602.7       0.9071

ELEMENT = "Line.632670"
632           1      1067.8 +j    487.1     1173.6       0.9098
632           2       532.1 +j    117.8      545.0       0.9763
632           3       852.4 +j    347.0      920.3       0.9262
   TERMINAL TOTAL .  2452.3 +j    952.0     2630.6       0.9322
670           1     -1062.0 +j   -463.4     1158.7       0.9165
670           2      -535.0 +j   -115.4      547.3       0.9775
670           3      -844.1 +j   -337.9      909.3       0.9284
   TERMINAL TOTAL . -2441.1 +j   -916.7     2607.6       0.9362

ELEMENT = "Line.670671"
670           1      1045.0 +j    453.4     1139.1       0.9174
670           2       469.0 +j     77.4      475.3       0.9867
670           3       727.1 +j    269.9      775.6       0.9375
   TERMINAL TOTAL .  2241.1 +j    800.7     2379.8       0.9417
671           1     -1032.1 +j   -405.9     1109.1       0.9306
671           2      -474.9 +j    -73.1      480.4       0.9884
671           3      -714.2 +j   -259.0      759.7       0.9401
   TERMINAL TOTAL . -2221.1 +j   -738.0     2340.5       0.9490

ELEMENT = "Line.671680"
671           1        -0.0 +j     -0.0        0.0       0.0228
671           2         0.0 +j     -0.0        0.0      -0.0015
671           3         0.0 +j     -0.0        0.0      -0.0207
   TERMINAL TOTAL .    -0.0 +j     -0.0        0.0       0.0000
680           1         0.0 +j      0.0        0.0       0.5368
680           2         0.0 +j      0.0        0.0       0.7575
680           3         0.0 +j     -0.0        0.0      -0.0178
   TERMINAL TOTAL .     0.0 +j     -0.0        0.0      -1.0000

ELEMENT = "Line.632633"
632           1       163.0 +j    115.2      199.6       0.8165
632           2       121.6 +j     92.8      153.0       0.7947
632           3       121.8 +j     93.0      153.3       0.7948
   TERMINAL TOTAL .   406.4 +j    301.1      505.8       0.8035
633           1      -162.6 +j   -114.7      199.0       0.8171
633           2      -121.4 +j    -92.6      152.7       0.7952
633           3      -121.5 +j    -92.8      152.9       0.7949
   TERMINAL TOTAL .  -405.5 +j   -300.1      504.5       0.8039

ELEMENT = "Line.632645"
632           3        76.4 +j    136.5      156.5       0.4884
632           2       333.0 +j    126.8      356.3       0.9346
   TERMINAL TOTAL .   409.4 +j    263.3      486.8       0.8411
645           3       -76.2 +j   -136.3      156.2       0.4880
645           2      -330.5 +j   -124.7      353.2       0.9357
   TERMINAL TOTAL .  -406.7 +j   -261.0      483.2       0.8416

ELEMENT = "Line.645646"
645           3        76.2 +j    136.3      156.2       0.4880
645           2       160.5 +j     -0.3      160.5      -1.0000
   TERMINAL TOTAL .   236.7 +j    136.0      273.0       0.8671
646           3       -75.9 +j   -136.1      155.9       0.4873
646           2      -160.2 +j      0.6      160.2      -1.0000
   TERMINAL TOTAL .  -236.2 +j   -135.5      272.3       0.8673

ELEMENT = "Line.692675"
692           1       488.3 +j      6.3      488.4       0.9999
692           2        70.0 +j   -163.5      177.8      -0.3934
692           3       290.5 +j     22.1      291.4       0.9971
   TERMINAL TOTAL .   848.8 +j   -135.1      859.5      -0.9876
675           1      -485.0 +j     -4.2      485.1       1.0000
675           2       -69.6 +j    163.9      178.1      -0.3908
675           3      -290.0 +j    -22.2      290.9       0.9971
   TERMINAL TOTAL .  -844.7 +j    137.5      855.8      -0.9870

ELEMENT = "Line.671684"
671           1       119.7 +j     80.2      144.1       0.8307
671           3       -70.7 +j    -16.6       72.7       0.9734
   TERMINAL TOTAL .    49.0 +j     63.6       80.3       0.6102
684           1      -119.4 +j    -79.9      143.7       0.8310
684           3        70.8 +j     16.8       72.8       0.9731
   TERMINAL TOTAL .   -48.6 +j    -63.1       79.7       0.6098

ELEMENT = "Line.684611"
684           3       166.3 +j    -16.8      167.1      -0.9950
   TERMINAL TOTAL .   166.3 +j    -16.8      167.1      -0.9950
611           3      -165.9 +j     17.2      166.8      -0.9947
   TERMINAL TOTAL .  -165.9 +j     17.2      166.8      -0.9947

ELEMENT = "Line.684652"
684           1       119.4 +j     79.9      143.7       0.8310
   TERMINAL TOTAL .   119.4 +j     79.9      143.7       0.8310
652           1      -118.6 +j    -79.7      142.9       0.8300
   TERMINAL TOTAL .  -118.6 +j    -79.7      142.9       0.8300

ELEMENT = "Line.671692"
671           1       532.0 +j    126.0      546.7       0.9731
671           2        70.0 +j   -163.5      177.8      -0.3934
671           3       415.2 +j     51.9      418.4       0.9923
   TERMINAL TOTAL .  1017.1 +j     14.4     1017.2       0.9999
692           1      -532.0 +j   -126.0      546.7       0.9731
692           2       -70.0 +j    163.5      177.8      -0.3934
692           3      -415.2 +j    -51.9      418.4       0.9923
   TERMINAL TOTAL . -1017.1 +j    -14.4     1017.2       0.9999

= = = = = = = = = = = = = = = = = = =  = = = = = = = = = = =  = =

Power Conversion Elements

  Bus     Phase     kW   +j  kvar         kVA         PF

ELEMENT = "Load.671"
671           1     380.4 +j  199.7      429.6       0.8853
671           2     404.9 +j  236.5      468.9       0.8635
671           3     369.7 +j  223.8      432.2       0.8555
  TERMINAL TOTAL  .  1155.0 +j    660.0     1330.3       0.8682

ELEMENT = "Load.634A"
634           1     160.0 +j  110.0      194.2       0.8240
634           0       0.0 +j    0.0        0.0       1.0000
  TERMINAL TOTAL  .   160.0 +j    110.0      194.2       0.8240

ELEMENT = "Load.634B"
634           2     120.0 +j   90.0      150.0       0.8000
634           0       0.0 +j    0.0        0.0       1.0000
  TERMINAL TOTAL  .   120.0 +j     90.0      150.0       0.8000

ELEMENT = "Load.634C"
634           3     120.0 +j   90.0      150.0       0.8000
634           0       0.0 +j    0.0        0.0       1.0000
  TERMINAL TOTAL  .   120.0 +j     90.0      150.0       0.8000

ELEMENT = "Load.645"
645           2     170.0 +j  125.0      211.0       0.8057
645           0       0.0 +j    0.0        0.0       1.0000
  TERMINAL TOTAL  .   170.0 +j    125.0      211.0       0.8057

ELEMENT = "Load.646"
646           2     160.2 +j   -0.6      160.2      -1.0000
646           3      75.9 +j  136.1      155.9       0.4873
  TERMINAL TOTAL  .   236.2 +j    135.5      272.3       0.8673

ELEMENT = "Load.692"
692           3     124.6 +j   29.8      128.1       0.9726
692           1      43.7 +j  119.7      127.4       0.3427
  TERMINAL TOTAL  .   168.3 +j    149.5      225.1       0.7476

ELEMENT = "Load.675A"
675           1     485.0 +j  190.0      520.9       0.9311
675           0       0.0 +j    0.0        0.0       1.0000
  TERMINAL TOTAL  .   485.0 +j    190.0      520.9       0.9311

ELEMENT = "Load.675B"
675           2      69.6 +j   61.4       92.8       0.7498
675           0       0.0 +j    0.0        0.0       1.0000
  TERMINAL TOTAL  .    69.6 +j     61.4       92.8       0.7498

ELEMENT = "Load.675C"
675           3     290.0 +j  212.0      359.2       0.8073
675           0       0.0 +j    0.0        0.0       1.0000
  TERMINAL TOTAL  .   290.0 +j    212.0      359.2       0.8073

ELEMENT = "Load.611"
611           3     165.9 +j   78.1      183.4       0.9048
611           0       0.0 +j    0.0        0.0       1.0000
  TERMINAL TOTAL  .   165.9 +j     78.1      183.4       0.9048

ELEMENT = "Load.652"
652           1     118.6 +j   79.7      142.9       0.8300
652           0       0.0 +j    0.0        0.0       1.0000
  TERMINAL TOTAL  .   118.6 +j     79.7      142.9       0.8300

ELEMENT = "Load.670A"
670           1      17.0 +j   10.0       19.7       0.8619
670           0       0.0 +j    0.0        0.0       1.0000
  TERMINAL TOTAL  .    17.0 +j     10.0       19.7       0.8619

ELEMENT = "Load.670B"
670           2      66.0 +j   38.0       76.2       0.8666
670           0       0.0 +j    0.0        0.0       1.0000
  TERMINAL TOTAL  .    66.0 +j     38.0       76.2       0.8666

ELEMENT = "Load.670C"
670           3     117.0 +j   68.0      135.3       0.8646
670           0       0.0 +j    0.0        0.0       1.0000
  TERMINAL TOTAL  .   117.0 +j     68.0      135.3       0.8646

ELEMENT = "Generator.G1"
684           3    -237.1 +j   -0.0      237.1       1.0000
684           0       0.0 +j    0.0        0.0       1.0000
  TERMINAL TOTAL  .  -237.1 +j     -0.0      237.1       1.0000


Total Circuit Losses =  100.8 +j  314.6
