machine_1/Distribution/13Bus/IEEE13Nodeckt_VLN_Node.Txt

LINE-GROUND and LINE-LINE VOLTAGES BY BUS & NODE

Bus       Node    VLN (kV)   Angle      pu     Base kV    Node-Node   VLL (kV)  Angle      pu

SOURCEBUS 1       69.714 /_   30.0      1.05   115.000        1-2     120.75 /_   60.0      1.05
   -      2       69.715 /_  -90.0      1.05   115.000        2-3     120.75 /_  -60.0      1.05
   -      3       69.712 /_  150.0    1.0499   115.000        3-1     120.74 /_  180.0      1.05
650 ..... 1       2.5217 /_    0.0    1.0499     4.160        1-2     4.3678 /_   30.0    1.0499
   -      2       2.5218 /_ -120.0      1.05     4.160        2-3     4.3679 /_  -90.0      1.05
   -      3       2.5217 /_  120.0    1.0499     4.160        3-1     4.3676 /_  150.0    1.0499
RG60 .... 1       2.5435 /_   -0.4     1.059     4.160        1-2     4.3802 /_   29.5    1.0529
   -      2       2.5165 /_ -120.3    1.0477     4.160        2-3     4.3852 /_  -90.2    1.0541
   -      3       2.5432 /_  119.5    1.0589     4.160        3-1     4.4037 /_  149.6    1.0586
633 ..... 1       2.4445 /_   -3.0    1.0178     4.160        1-2     4.2501 /_   27.9    1.0217
   -      2        2.489 /_ -121.9    1.0363     4.160        2-3     4.2613 /_  -93.1    1.0243
   -      3       2.4037 /_  116.9    1.0008     4.160        3-1     4.1967 /_  147.3    1.0088
634 ..... 1      0.27541 /_   -3.6    0.9938     0.480        1-2    0.47974 /_   27.4   0.99947
   -      2      0.28208 /_ -122.4    1.0179     0.480        2-3    0.48271 /_  -93.6    1.0056
   -      3      0.27205 /_  116.4   0.98168     0.480        3-1    0.47433 /_  146.6   0.98818
671 ..... 1       2.3843 /_   -5.7   0.99272     4.160        1-2     4.1724 /_   26.9     1.003
   -      2       2.5174 /_ -122.4    1.0481     4.160        2-3     4.2404 /_  -95.2    1.0193
   -      3       2.3087 /_  114.7   0.96125     4.160        3-1     4.0733 /_  145.0   0.97917
645 ..... 2       2.4714 /_ -122.1     1.029     4.160        2-3     4.2439 /_  -93.0    1.0202
   -      3       2.4054 /_  117.0    1.0015     4.160
646 ..... 2       2.4672 /_ -122.1    1.0273     4.160        2-3     4.2335 /_  -93.0    1.0177
   -      3       2.4005 /_  117.0   0.99945     4.160
692 ..... 1       2.3843 /_   -5.7   0.99272     4.160        1-2     4.1724 /_   26.9     1.003
   -      2       2.5174 /_ -122.4    1.0481     4.160        2-3     4.2404 /_  -95.2    1.0193
   -      3       2.3087 /_  114.7   0.96125     4.160        3-1     4.0733 /_  145.0   0.97917
675 ..... 1       2.3687 /_   -6.0   0.98625     4.160        1-2     4.1627 /_   26.9    1.0006
   -      2       2.5232 /_ -122.5    1.0505     4.160        2-3     4.2374 /_  -95.3    1.0186
   -      3       2.3039 /_  114.8   0.95923     4.160        3-1      4.061 /_  144.9   0.97621
611 ..... 3       2.2956 /_  114.4   0.95581     4.160
652 ..... 1       2.3674 /_   -5.7   0.98568     4.160
670 ..... 1       2.4297 /_   -3.8    1.0116     4.160        1-2     4.2305 /_   27.6    1.0169
   -      2       2.4995 /_ -122.1    1.0407     4.160        2-3      4.258 /_  -93.8    1.0236
   -      3       2.3729 /_  116.1   0.98798     4.160        3-1     4.1585 /_  146.6   0.99963
632 ..... 1       2.4517 /_   -2.9    1.0208     4.160        1-2     4.2607 /_   27.9    1.0242
   -      2       2.4935 /_ -121.9    1.0382     4.160        2-3     4.2716 /_  -93.0    1.0268
   -      3       2.4101 /_  116.9    1.0035     4.160        3-1     4.2072 /_  147.3    1.0113
680 ..... 1       2.3843 /_   -5.7   0.99272     4.160        1-2     4.1724 /_   26.9     1.003
   -      2       2.5174 /_ -122.4    1.0481     4.160        2-3     4.2404 /_  -95.2    1.0193
   -      3       2.3087 /_  114.7   0.96125     4.160        3-1     4.0733 /_  145.0   0.97917
684 ..... 1       2.3808 /_   -5.7   0.99128     4.160
   -      3       2.3005 /_  114.5   0.95783     4.160        3-1     4.0599 /_  145.0   0.97595
